Version 4
SHEET 1 1864 680
WIRE 160 -96 64 -96
WIRE 688 -96 592 -96
WIRE -544 -64 -704 -64
WIRE 64 -64 64 -96
WIRE 80 -64 64 -64
WIRE 592 -64 592 -96
WIRE 608 -64 592 -64
WIRE -432 -48 -480 -48
WIRE -416 -48 -432 -48
WIRE -288 -48 -336 -48
WIRE -208 -48 -288 -48
WIRE -96 -48 -208 -48
WIRE 32 -48 -96 -48
WIRE 160 -48 160 -96
WIRE 160 -48 144 -48
WIRE 192 -48 160 -48
WIRE 320 -48 272 -48
WIRE 400 -48 320 -48
WIRE 512 -48 400 -48
WIRE 544 -48 512 -48
WIRE 688 -48 688 -96
WIRE 688 -48 672 -48
WIRE 736 -48 688 -48
WIRE 864 -48 816 -48
WIRE 944 -48 864 -48
WIRE 1056 -48 944 -48
WIRE 1072 -48 1056 -48
WIRE 1088 -48 1072 -48
WIRE -544 -32 -592 -32
WIRE 32 -32 32 -48
WIRE 80 -32 32 -32
WIRE 544 -32 544 -48
WIRE 608 -32 544 -32
WIRE -288 16 -288 -48
WIRE 320 16 320 -48
WIRE 864 16 864 -48
WIRE -208 32 -208 -48
WIRE 400 32 400 -48
WIRE 944 32 944 -48
WIRE -592 48 -592 -32
WIRE -560 48 -592 48
WIRE -432 48 -432 -48
WIRE -432 48 -480 48
WIRE -96 48 -96 -48
WIRE 48 48 -96 48
WIRE 512 48 512 -48
WIRE 656 48 512 48
WIRE 1056 48 1056 -48
WIRE 1200 48 1056 48
WIRE -704 64 -704 -64
WIRE -592 64 -592 48
WIRE -96 64 -96 48
WIRE 512 64 512 48
WIRE 1056 64 1056 48
WIRE -288 144 -288 96
WIRE -208 144 -208 96
WIRE 320 144 320 96
WIRE 400 144 400 96
WIRE 864 144 864 96
WIRE 944 144 944 96
WIRE -96 160 -96 144
WIRE -96 160 -176 160
WIRE 512 160 512 144
WIRE 512 160 432 160
WIRE 1056 160 1056 144
WIRE 1056 160 976 160
WIRE -704 176 -704 144
WIRE -592 176 -592 144
WIRE -592 176 -704 176
WIRE -176 192 -176 160
WIRE -96 192 -96 160
WIRE 432 192 432 160
WIRE 512 192 512 160
WIRE 976 192 976 160
WIRE 1056 192 1056 160
WIRE -704 224 -704 176
WIRE -160 288 -160 256
WIRE -96 288 -96 256
WIRE -96 288 -160 288
WIRE 16 288 -96 288
WIRE 448 288 448 256
WIRE 512 288 512 256
WIRE 512 288 448 288
WIRE 624 288 512 288
WIRE 992 288 992 256
WIRE 1056 288 1056 256
WIRE 1056 288 992 288
WIRE 1168 288 1056 288
WIRE -96 320 -96 288
WIRE 16 320 16 288
WIRE 48 320 48 48
WIRE 512 320 512 288
WIRE 624 320 624 288
WIRE 656 320 656 48
WIRE 1056 320 1056 288
WIRE 1168 320 1168 288
WIRE 1200 320 1200 48
WIRE -96 416 -96 400
WIRE 32 416 32 384
WIRE 32 416 -96 416
WIRE 512 416 512 400
WIRE 640 416 640 384
WIRE 640 416 512 416
WIRE 1056 416 1056 400
WIRE 1184 416 1184 384
WIRE 1184 416 1056 416
WIRE -96 432 -96 416
WIRE 512 432 512 416
WIRE 1056 432 1056 416
WIRE -192 528 -192 256
WIRE -96 528 -96 512
WIRE -96 528 -192 528
WIRE 416 528 416 256
WIRE 512 528 512 512
WIRE 512 528 416 528
WIRE 960 528 960 256
WIRE 1056 528 1056 512
WIRE 1056 528 960 528
WIRE -96 544 -96 528
WIRE 512 544 512 528
WIRE 1056 544 1056 528
WIRE -96 656 -96 624
WIRE 512 656 512 624
WIRE 1056 656 1056 624
FLAG -704 224 0
FLAG -704 -64 Vin
FLAG -96 656 0
FLAG -208 144 0
FLAG -288 144 0
FLAG 512 656 0
FLAG 400 144 0
FLAG 320 144 0
FLAG 1056 656 0
FLAG 944 144 0
FLAG 864 144 0
FLAG 1072 -48 Vout
SYMBOL voltage -704 48 R0
WINDOW 123 -81 116 Left 2
WINDOW 39 0 0 Left 0
SYMATTR Value2 AC 1
SYMATTR InstName V1
SYMATTR Value ""
SYMBOL OpAmps\\opamp 640 -112 R0
SYMATTR InstName U1
SYMBOL OpAmps\\opamp -512 16 M180
SYMATTR InstName U3
SYMBOL res -464 32 R90
WINDOW 0 0 56 VBottom 2
WINDOW 3 32 56 VTop 2
SYMATTR InstName R4
SYMATTR Value 10.77
SYMBOL res -608 48 R0
WINDOW 0 -37 58 Left 2
WINDOW 3 -31 84 Left 2
SYMATTR InstName R5
SYMATTR Value 1
SYMBOL res -304 0 R0
WINDOW 0 -56 38 Left 2
WINDOW 3 -61 80 Left 2
SYMATTR InstName R6
SYMATTR Value 1.14
SYMBOL res -320 -64 R90
WINDOW 0 0 56 VBottom 2
WINDOW 3 32 56 VTop 2
SYMATTR InstName R7
SYMATTR Value 8
SYMBOL cap -224 32 R0
WINDOW 3 24 52 Left 2
SYMATTR InstName C4
SYMATTR Value 7.2343µ
SYMBOL res -112 48 R0
SYMATTR InstName R8
SYMATTR Value 1
SYMBOL cap -112 192 R0
SYMATTR InstName C5
SYMATTR Value 7.2343µ
SYMBOL res -112 304 R0
SYMATTR InstName R9
SYMATTR Value 1
SYMBOL res -112 416 R0
SYMATTR InstName R10
SYMATTR Value 1
SYMBOL res -112 528 R0
SYMATTR InstName R11
SYMATTR Value 1
SYMBOL OpAmps\\opamp -112 224 M270
SYMATTR InstName U4
SYMBOL OpAmps\\opamp -32 352 M90
SYMATTR InstName U5
SYMBOL res 304 0 R0
WINDOW 0 -57 44 Left 2
WINDOW 3 -76 80 Left 2
SYMATTR InstName R1
SYMATTR Value 1.059
SYMBOL cap 384 32 R0
SYMATTR InstName C1
SYMATTR Value 7.2343µ
SYMBOL res 496 48 R0
SYMATTR InstName R12
SYMATTR Value 1
SYMBOL cap 496 192 R0
SYMATTR InstName C6
SYMATTR Value 8.8764µ
SYMBOL res 496 304 R0
SYMATTR InstName R13
SYMATTR Value 1
SYMBOL res 496 416 R0
SYMATTR InstName R14
SYMATTR Value 1
SYMBOL res 496 528 R0
SYMATTR InstName R15
SYMATTR Value 1
SYMBOL OpAmps\\opamp 496 224 M270
SYMATTR InstName U6
SYMBOL OpAmps\\opamp 576 352 M90
SYMATTR InstName U7
SYMBOL OpAmps\\opamp 112 -112 R0
SYMATTR InstName U8
SYMBOL res 288 -64 R90
WINDOW 0 0 56 VBottom 2
WINDOW 3 32 56 VTop 2
SYMATTR InstName R16
SYMATTR Value 17.857
SYMBOL res 848 0 R0
WINDOW 0 -64 42 Left 2
WINDOW 3 -82 74 Left 2
SYMATTR InstName R2
SYMATTR Value 1.075
SYMBOL cap 928 32 R0
SYMATTR InstName C2
SYMATTR Value 7.2343µ
SYMBOL res 1040 48 R0
SYMATTR InstName R17
SYMATTR Value 1
SYMBOL cap 1040 192 R0
SYMATTR InstName C7
SYMATTR Value 5.9µ
SYMBOL res 1040 304 R0
SYMATTR InstName R18
SYMATTR Value 1
SYMBOL res 1040 416 R0
SYMATTR InstName R19
SYMATTR Value 1
SYMBOL res 1040 528 R0
SYMATTR InstName R20
SYMATTR Value 1
SYMBOL OpAmps\\opamp 1040 224 M270
SYMATTR InstName U10
SYMBOL OpAmps\\opamp 1120 352 M90
SYMATTR InstName U11
SYMBOL res 832 -64 R90
WINDOW 0 0 56 VBottom 2
WINDOW 3 32 56 VTop 2
SYMATTR InstName R21
SYMATTR Value 14.49
TEXT -568 280 Left 2 !.ac dec 100000 10k 40k
TEXT -568 232 Left 2 !.lib opamp.sub
