Version 4
SHEET 1 1864 680
WIRE -544 -64 -704 -64
WIRE -432 -48 -480 -48
WIRE -416 -48 -432 -48
WIRE -288 -48 -336 -48
WIRE -208 -48 -288 -48
WIRE -96 -48 -208 -48
WIRE 176 -48 144 -48
WIRE 304 -48 256 -48
WIRE 384 -48 304 -48
WIRE 496 -48 384 -48
WIRE 720 -48 672 -48
WIRE 848 -48 800 -48
WIRE 928 -48 848 -48
WIRE 1040 -48 928 -48
WIRE -544 -32 -592 -32
WIRE 1296 -32 1264 -32
WIRE -288 16 -288 -48
WIRE 304 16 304 -48
WIRE 848 16 848 -48
WIRE -208 32 -208 -48
WIRE 384 32 384 -48
WIRE 928 32 928 -48
WIRE -592 48 -592 -32
WIRE -560 48 -592 48
WIRE -432 48 -432 -48
WIRE -432 48 -480 48
WIRE -96 48 -96 -48
WIRE 48 48 -96 48
WIRE 496 48 496 -48
WIRE 640 48 496 48
WIRE 1040 48 1040 -48
WIRE 1184 48 1040 48
WIRE -704 64 -704 -64
WIRE -592 64 -592 48
WIRE -96 64 -96 48
WIRE 496 64 496 48
WIRE 1040 64 1040 48
WIRE -288 144 -288 96
WIRE -208 144 -208 96
WIRE 304 144 304 96
WIRE 384 144 384 96
WIRE 848 144 848 96
WIRE 928 144 928 96
WIRE -96 160 -96 144
WIRE -96 160 -176 160
WIRE 496 160 496 144
WIRE 496 160 416 160
WIRE 1040 160 1040 144
WIRE 1040 160 960 160
WIRE -704 176 -704 144
WIRE -592 176 -592 144
WIRE -592 176 -704 176
WIRE -176 192 -176 160
WIRE -96 192 -96 160
WIRE 416 192 416 160
WIRE 496 192 496 160
WIRE 960 192 960 160
WIRE 1040 192 1040 160
WIRE -704 224 -704 176
WIRE -160 288 -160 256
WIRE -96 288 -96 256
WIRE -96 288 -160 288
WIRE 16 288 -96 288
WIRE 432 288 432 256
WIRE 496 288 496 256
WIRE 496 288 432 288
WIRE 608 288 496 288
WIRE 976 288 976 256
WIRE 1040 288 1040 256
WIRE 1040 288 976 288
WIRE 1152 288 1040 288
WIRE -96 320 -96 288
WIRE 16 320 16 288
WIRE 48 320 48 48
WIRE 496 320 496 288
WIRE 608 320 608 288
WIRE 640 320 640 48
WIRE 1040 320 1040 288
WIRE 1152 320 1152 288
WIRE 1184 320 1184 48
WIRE -96 416 -96 400
WIRE 32 416 32 384
WIRE 32 416 -96 416
WIRE 496 416 496 400
WIRE 624 416 624 384
WIRE 624 416 496 416
WIRE 1040 416 1040 400
WIRE 1168 416 1168 384
WIRE 1168 416 1040 416
WIRE 1264 416 1264 -32
WIRE 1264 416 1168 416
WIRE -96 432 -96 416
WIRE 496 432 496 416
WIRE 1040 432 1040 416
WIRE 624 512 624 416
WIRE 672 512 672 -48
WIRE 672 512 624 512
WIRE -192 528 -192 256
WIRE -96 528 -96 512
WIRE -96 528 -192 528
WIRE 400 528 400 256
WIRE 496 528 496 512
WIRE 496 528 400 528
WIRE 944 528 944 256
WIRE 1040 528 1040 512
WIRE 1040 528 944 528
WIRE -96 544 -96 528
WIRE 32 544 32 416
WIRE 144 544 144 -48
WIRE 144 544 32 544
WIRE 496 544 496 528
WIRE 1040 544 1040 528
WIRE -96 656 -96 624
WIRE 496 656 496 624
WIRE 1040 656 1040 624
FLAG -704 224 0
FLAG -704 -64 Vin
FLAG -96 656 0
FLAG -208 144 0
FLAG -288 144 0
FLAG 496 656 0
FLAG 384 144 0
FLAG 304 144 0
FLAG 1040 656 0
FLAG 928 144 0
FLAG 848 144 0
FLAG 1296 -32 Vout
SYMBOL voltage -704 48 R0
WINDOW 123 -81 116 Left 2
WINDOW 39 0 0 Left 0
SYMATTR Value2 AC 1
SYMATTR InstName V1
SYMATTR Value ""
SYMBOL OpAmps\\opamp -512 16 M180
SYMATTR InstName U3
SYMBOL res -464 32 R90
WINDOW 0 0 56 VBottom 2
WINDOW 3 32 56 VTop 2
SYMATTR InstName R4
SYMATTR Value 10.77
SYMBOL res -608 48 R0
WINDOW 0 -37 58 Left 2
WINDOW 3 -31 84 Left 2
SYMATTR InstName R5
SYMATTR Value 1
SYMBOL res -304 0 R0
WINDOW 0 -56 38 Left 2
WINDOW 3 -61 80 Left 2
SYMATTR InstName R6
SYMATTR Value 1.14
SYMBOL res -320 -64 R90
WINDOW 0 0 56 VBottom 2
WINDOW 3 32 56 VTop 2
SYMATTR InstName R7
SYMATTR Value 8
SYMBOL cap -224 32 R0
WINDOW 3 24 52 Left 2
SYMATTR Value 7.2343µ
SYMATTR InstName C4
SYMBOL res -112 48 R0
SYMATTR InstName R8
SYMATTR Value 1
SYMBOL cap -112 192 R0
SYMATTR InstName C5
SYMATTR Value 7.2343µ
SYMBOL res -112 304 R0
SYMATTR InstName R9
SYMATTR Value 1
SYMBOL res -112 416 R0
SYMATTR InstName R10
SYMATTR Value 1
SYMBOL res -112 528 R0
SYMATTR InstName R11
SYMATTR Value 1
SYMBOL OpAmps\\opamp -112 224 M270
SYMATTR InstName U4
SYMBOL OpAmps\\opamp -32 352 M90
SYMATTR InstName U5
SYMBOL res 288 0 R0
WINDOW 0 -57 44 Left 2
WINDOW 3 -76 80 Left 2
SYMATTR InstName R1
SYMATTR Value 1.059
SYMBOL cap 368 32 R0
SYMATTR InstName C1
SYMATTR Value 7.2343µ
SYMBOL res 480 48 R0
SYMATTR InstName R12
SYMATTR Value 1
SYMBOL cap 480 192 R0
SYMATTR InstName C6
SYMATTR Value 8.8764µ
SYMBOL res 480 304 R0
SYMATTR InstName R13
SYMATTR Value 1
SYMBOL res 480 416 R0
SYMATTR InstName R14
SYMATTR Value 1
SYMBOL res 480 528 R0
SYMATTR InstName R15
SYMATTR Value 1
SYMBOL OpAmps\\opamp 480 224 M270
SYMATTR InstName U6
SYMBOL OpAmps\\opamp 560 352 M90
SYMATTR InstName U7
SYMBOL res 272 -64 R90
WINDOW 0 0 56 VBottom 2
WINDOW 3 32 56 VTop 2
SYMATTR InstName R16
SYMATTR Value 17.857
SYMBOL res 832 0 R0
WINDOW 0 -64 42 Left 2
WINDOW 3 -82 74 Left 2
SYMATTR InstName R2
SYMATTR Value 1.075
SYMBOL cap 912 32 R0
SYMATTR InstName C2
SYMATTR Value 7.2343µ
SYMBOL res 1024 48 R0
SYMATTR InstName R17
SYMATTR Value 1
SYMBOL cap 1024 192 R0
SYMATTR InstName C7
SYMATTR Value 5.9µ
SYMBOL res 1024 304 R0
SYMATTR InstName R18
SYMATTR Value 1
SYMBOL res 1024 416 R0
SYMATTR InstName R19
SYMATTR Value 1
SYMBOL res 1024 528 R0
SYMATTR InstName R20
SYMATTR Value 1
SYMBOL OpAmps\\opamp 1024 224 M270
SYMATTR InstName U10
SYMBOL OpAmps\\opamp 1104 352 M90
SYMATTR InstName U11
SYMBOL res 816 -64 R90
WINDOW 0 0 56 VBottom 2
WINDOW 3 32 56 VTop 2
SYMATTR InstName R21
SYMATTR Value 14.49
TEXT -568 280 Left 2 !.ac dec 100000 10k 40k
TEXT -568 232 Left 2 !.lib opamp.sub
