Version 4
SHEET 1 880 680
WIRE 288 -112 -32 -112
WIRE 672 -112 368 -112
WIRE -32 0 -32 -112
WIRE 0 0 -32 0
WIRE 112 0 80 0
WIRE 352 0 320 0
WIRE 512 0 432 0
WIRE -32 96 -32 0
WIRE 0 96 -32 96
WIRE 112 96 112 0
WIRE 112 96 64 96
WIRE 512 112 512 0
WIRE 512 112 480 112
WIRE 528 112 512 112
WIRE 672 112 672 -112
WIRE 672 112 608 112
WIRE 320 128 320 0
WIRE 320 128 304 128
WIRE 416 128 320 128
WIRE 528 144 480 144
WIRE 528 176 528 144
WIRE -256 208 -352 208
WIRE -128 208 -256 208
WIRE -32 208 -32 96
WIRE -32 208 -48 208
WIRE 0 208 -32 208
WIRE 112 224 112 96
WIRE 112 224 64 224
WIRE 144 224 112 224
WIRE 240 224 240 128
WIRE 240 224 224 224
WIRE 272 224 240 224
WIRE 0 240 -48 240
WIRE 672 240 672 112
WIRE 672 240 336 240
WIRE 736 240 672 240
WIRE 272 256 224 256
WIRE -48 288 -48 240
WIRE 224 288 224 256
WIRE -352 320 -352 288
FLAG 528 176 0
FLAG 224 288 0
FLAG -48 288 0
FLAG 736 240 Vo
FLAG -256 208 Vin
FLAG -352 320 0
SYMBOL OpAmps\\opamp 32 160 R0
SYMATTR InstName U1
SYMBOL OpAmps\\opamp 304 304 M180
SYMATTR InstName U2
SYMBOL OpAmps\\opamp 448 192 R180
SYMATTR InstName U3
SYMBOL res -32 192 R90
WINDOW 0 0 56 VBottom 2
WINDOW 3 40 93 VTop 2
SYMATTR InstName R1
SYMATTR Value 1.4142146k
SYMBOL res 96 -16 R90
WINDOW 0 0 56 VBottom 2
WINDOW 3 32 56 VTop 2
SYMATTR InstName R2
SYMATTR Value 10k
SYMBOL cap 64 80 R90
WINDOW 0 0 32 VBottom 2
WINDOW 3 32 19 VTop 2
SYMATTR InstName C1
SYMATTR Value 70.711µ
SYMBOL res 384 -128 R90
WINDOW 0 0 56 VBottom 2
WINDOW 3 32 56 VTop 2
SYMATTR InstName R3
SYMATTR Value 14.142146k
SYMBOL res 448 -16 R90
WINDOW 0 0 56 VBottom 2
WINDOW 3 32 56 VTop 2
SYMATTR InstName R4
SYMATTR Value 10k
SYMBOL res 624 96 R90
WINDOW 0 0 56 VBottom 2
WINDOW 3 32 56 VTop 2
SYMATTR InstName R5
SYMATTR Value 10k
SYMBOL cap 304 112 R90
WINDOW 0 0 32 VBottom 2
WINDOW 3 38 7 VTop 2
SYMATTR InstName C2
SYMATTR Value 70.711µ
SYMBOL res 240 208 R90
WINDOW 0 0 56 VBottom 2
WINDOW 3 32 56 VTop 2
SYMATTR InstName R6
SYMATTR Value 10k
SYMBOL voltage -352 192 R0
WINDOW 123 24 124 Left 2
WINDOW 39 0 0 Left 0
WINDOW 0 -59 10 Left 2
SYMATTR Value2 AC 1
SYMATTR InstName V1
SYMATTR Value ""
TEXT 400 288 Left 2 !.lib opamp.sub
TEXT 400 320 Left 2 !.ac dec 1000 0.0001 1000
