Version 4
SHEET 1 932 680
WIRE -496 112 -528 112
WIRE -384 112 -416 112
WIRE 608 112 464 112
WIRE -192 128 -336 128
WIRE 160 128 0 128
WIRE 464 160 464 112
WIRE 512 160 464 160
WIRE 0 176 0 128
WIRE 64 176 0 176
WIRE 608 176 608 112
WIRE 608 176 576 176
WIRE 704 176 608 176
WIRE -336 192 -336 128
WIRE -304 192 -336 192
WIRE 160 192 160 128
WIRE 160 192 128 192
WIRE 192 192 160 192
WIRE 320 192 272 192
WIRE 448 192 400 192
WIRE 512 192 448 192
WIRE -624 208 -720 208
WIRE -528 208 -528 112
WIRE -528 208 -544 208
WIRE -480 208 -528 208
WIRE -192 208 -192 128
WIRE -192 208 -240 208
WIRE -176 208 -192 208
WIRE -32 208 -96 208
WIRE 64 208 -32 208
WIRE -384 224 -384 112
WIRE -384 224 -416 224
WIRE -304 224 -384 224
WIRE -480 240 -528 240
WIRE -32 240 -32 208
WIRE 448 240 448 192
WIRE -720 272 -720 208
WIRE -720 432 -720 352
WIRE -528 432 -528 240
WIRE -528 432 -720 432
WIRE -32 432 -32 320
WIRE -32 432 -528 432
WIRE 448 432 448 304
WIRE 448 432 -32 432
WIRE -32 480 -32 432
FLAG -720 208 Vin
FLAG 704 176 Vout
FLAG -32 480 0
SYMBOL voltage -720 256 R0
WINDOW 123 24 124 Left 2
WINDOW 39 0 0 Left 0
WINDOW 0 -59 10 Left 2
SYMATTR Value2 AC 1
SYMATTR InstName V1
SYMATTR Value ""
SYMBOL ind -192 224 R270
WINDOW 0 32 56 VTop 2
WINDOW 3 5 56 VBottom 2
SYMATTR InstName L1
SYMATTR Value 1
SYMBOL res -48 224 R0
SYMATTR InstName R1
SYMATTR Value 2.8284
SYMBOL OpAmps\\opamp 96 128 R0
SYMATTR InstName U1
SYMBOL res 288 176 R90
WINDOW 0 0 56 VBottom 2
WINDOW 3 32 56 VTop 2
SYMATTR InstName R2
SYMATTR Value 2.8284
SYMBOL ind 304 208 R270
WINDOW 0 32 56 VTop 2
WINDOW 3 5 56 VBottom 2
SYMATTR InstName L2
SYMATTR Value 1
SYMBOL cap 432 240 R0
SYMATTR InstName C1
SYMATTR Value 0.125
SYMBOL OpAmps\\opamp 544 112 R0
SYMATTR InstName U2
SYMBOL OpAmps\\opamp -448 160 R0
SYMATTR InstName U3
SYMBOL res -528 192 R90
WINDOW 0 0 56 VBottom 2
WINDOW 3 32 56 VTop 2
SYMATTR InstName R3
SYMATTR Value 22.627
SYMBOL res -400 96 R90
WINDOW 0 0 56 VBottom 2
WINDOW 3 32 56 VTop 2
SYMATTR InstName R4
SYMATTR Value 2
SYMBOL OpAmps\\opamp -272 144 R0
SYMATTR InstName U4
TEXT 488 392 Left 2 !.lib opamp.sub
TEXT 488 344 Left 2 !.ac dec 10000 10m 100k
